data/LV30_315bus/Groundings.dss

// new reactor.tx_busgrounding_B468 phases=1 bus1=B468.4 bus2=B468.0 r=0.3 x=0.0
new reactor.loadbusgrounding_B1766 phases=1 bus1=B1766.4 bus2=B1766.0 r=10.0 x=0.0
new reactor.loadbusgrounding_B3058 phases=1 bus1=B3058.4 bus2=B3058.0 r=10.0 x=0.0
new reactor.loadbusgrounding_B2362 phases=1 bus1=B2362.4 bus2=B2362.0 r=10.0 x=0.0
new reactor.loadbusgrounding_B2675 phases=1 bus1=B2675.4 bus2=B2675.0 r=10.0 x=0.0
new reactor.loadbusgrounding_B1333 phases=1 bus1=B1333.4 bus2=B1333.0 r=10.0 x=0.0
new reactor.loadbusgrounding_B3083 phases=1 bus1=B3083.4 bus2=B3083.0 r=10.0 x=0.0
new reactor.loadbusgrounding_B1545 phases=1 bus1=B1545.4 bus2=B1545.0 r=10.0 x=0.0
new reactor.loadbusgrounding_B2910 phases=1 bus1=B2910.4 bus2=B2910.0 r=10.0 x=0.0
new reactor.loadbusgrounding_B2802 phases=1 bus1=B2802.4 bus2=B2802.0 r=10.0 x=0.0
new reactor.loadbusgrounding_B1994 phases=1 bus1=B1994.4 bus2=B1994.0 r=10.0 x=0.0
new reactor.loadbusgrounding_B2470 phases=1 bus1=B2470.4 bus2=B2470.0 r=10.0 x=0.0
new reactor.loadbusgrounding_B1530 phases=1 bus1=B1530.4 bus2=B1530.0 r=10.0 x=0.0
new reactor.loadbusgrounding_B2144 phases=1 bus1=B2144.4 bus2=B2144.0 r=10.0 x=0.0
new reactor.loadbusgrounding_B1039 phases=1 bus1=B1039.4 bus2=B1039.0 r=10.0 x=0.0
new reactor.loadbusgrounding_B1773 phases=1 bus1=B1773.4 bus2=B1773.0 r=10.0 x=0.0
new reactor.loadbusgrounding_B3159 phases=1 bus1=B3159.4 bus2=B3159.0 r=10.0 x=0.0
new reactor.loadbusgrounding_B1516 phases=1 bus1=B1516.4 bus2=B1516.0 r=10.0 x=0.0
new reactor.loadbusgrounding_B1185 phases=1 bus1=B1185.4 bus2=B1185.0 r=10.0 x=0.0
new reactor.loadbusgrounding_B161 phases=1 bus1=B161.4 bus2=B161.0 r=10.0 x=0.0
new reactor.loadbusgrounding_B124 phases=1 bus1=B124.4 bus2=B124.0 r=10.0 x=0.0
new reactor.loadbusgrounding_B812 phases=1 bus1=B812.4 bus2=B812.0 r=10.0 x=0.0
new reactor.loadbusgrounding_B360 phases=1 bus1=B360.4 bus2=B360.0 r=10.0 x=0.0
new reactor.loadbusgrounding_B2358 phases=1 bus1=B2358.4 bus2=B2358.0 r=10.0 x=0.0
new reactor.loadbusgrounding_B3006 phases=1 bus1=B3006.4 bus2=B3006.0 r=10.0 x=0.0
new reactor.loadbusgrounding_B2451 phases=1 bus1=B2451.4 bus2=B2451.0 r=10.0 x=0.0
new reactor.loadbusgrounding_B2278 phases=1 bus1=B2278.4 bus2=B2278.0 r=10.0 x=0.0
new reactor.loadbusgrounding_B1108 phases=1 bus1=B1108.4 bus2=B1108.0 r=10.0 x=0.0
new reactor.loadbusgrounding_B2709 phases=1 bus1=B2709.4 bus2=B2709.0 r=10.0 x=0.0
new reactor.loadbusgrounding_B3233 phases=1 bus1=B3233.4 bus2=B3233.0 r=10.0 x=0.0
new reactor.loadbusgrounding_B3274 phases=1 bus1=B3274.4 bus2=B3274.0 r=10.0 x=0.0
new reactor.loadbusgrounding_B137 phases=1 bus1=B137.4 bus2=B137.0 r=10.0 x=0.0
new reactor.loadbusgrounding_B568 phases=1 bus1=B568.4 bus2=B568.0 r=10.0 x=0.0
new reactor.loadbusgrounding_B1395 phases=1 bus1=B1395.4 bus2=B1395.0 r=10.0 x=0.0
new reactor.loadbusgrounding_B819 phases=1 bus1=B819.4 bus2=B819.0 r=10.0 x=0.0
new reactor.loadbusgrounding_B2401 phases=1 bus1=B2401.4 bus2=B2401.0 r=10.0 x=0.0
new reactor.loadbusgrounding_B3234 phases=1 bus1=B3234.4 bus2=B3234.0 r=10.0 x=0.0
new reactor.loadbusgrounding_B2699 phases=1 bus1=B2699.4 bus2=B2699.0 r=10.0 x=0.0
new reactor.loadbusgrounding_B2514 phases=1 bus1=B2514.4 bus2=B2514.0 r=10.0 x=0.0
new reactor.loadbusgrounding_B2990 phases=1 bus1=B2990.4 bus2=B2990.0 r=10.0 x=0.0
new reactor.loadbusgrounding_B1094 phases=1 bus1=B1094.4 bus2=B1094.0 r=10.0 x=0.0
new reactor.loadbusgrounding_B177 phases=1 bus1=B177.4 bus2=B177.0 r=10.0 x=0.0
new reactor.loadbusgrounding_B2632 phases=1 bus1=B2632.4 bus2=B2632.0 r=10.0 x=0.0
new reactor.loadbusgrounding_B2657 phases=1 bus1=B2657.4 bus2=B2657.0 r=10.0 x=0.0
new reactor.loadbusgrounding_B147 phases=1 bus1=B147.4 bus2=B147.0 r=10.0 x=0.0
new reactor.loadbusgrounding_B2826 phases=1 bus1=B2826.4 bus2=B2826.0 r=10.0 x=0.0
new reactor.loadbusgrounding_B1573 phases=1 bus1=B1573.4 bus2=B1573.0 r=10.0 x=0.0
new reactor.loadbusgrounding_B989 phases=1 bus1=B989.4 bus2=B989.0 r=10.0 x=0.0
new reactor.loadbusgrounding_B1741 phases=1 bus1=B1741.4 bus2=B1741.0 r=10.0 x=0.0
new reactor.loadbusgrounding_B1558 phases=1 bus1=B1558.4 bus2=B1558.0 r=10.0 x=0.0
new reactor.loadbusgrounding_B2701 phases=1 bus1=B2701.4 bus2=B2701.0 r=10.0 x=0.0
new reactor.loadbusgrounding_B1570 phases=1 bus1=B1570.4 bus2=B1570.0 r=10.0 x=0.0
new reactor.loadbusgrounding_B522 phases=1 bus1=B522.4 bus2=B522.0 r=10.0 x=0.0
new reactor.loadbusgrounding_B355 phases=1 bus1=B355.4 bus2=B355.0 r=10.0 x=0.0
new reactor.loadbusgrounding_B2323 phases=1 bus1=B2323.4 bus2=B2323.0 r=10.0 x=0.0
new reactor.loadbusgrounding_B1523 phases=1 bus1=B1523.4 bus2=B1523.0 r=10.0 x=0.0
new reactor.loadbusgrounding_B2486 phases=1 bus1=B2486.4 bus2=B2486.0 r=10.0 x=0.0
new reactor.loadbusgrounding_B1227 phases=1 bus1=B1227.4 bus2=B1227.0 r=10.0 x=0.0
new reactor.loadbusgrounding_B1947 phases=1 bus1=B1947.4 bus2=B1947.0 r=10.0 x=0.0
new reactor.loadbusgrounding_B2254 phases=1 bus1=B2254.4 bus2=B2254.0 r=10.0 x=0.0
new reactor.loadbusgrounding_B2335 phases=1 bus1=B2335.4 bus2=B2335.0 r=10.0 x=0.0
new reactor.loadbusgrounding_B183 phases=1 bus1=B183.4 bus2=B183.0 r=10.0 x=0.0
new reactor.loadbusgrounding_B3103 phases=1 bus1=B3103.4 bus2=B3103.0 r=10.0 x=0.0
new reactor.loadbusgrounding_B163 phases=1 bus1=B163.4 bus2=B163.0 r=10.0 x=0.0
new reactor.loadbusgrounding_B2433 phases=1 bus1=B2433.4 bus2=B2433.0 r=10.0 x=0.0
new reactor.loadbusgrounding_B2806 phases=1 bus1=B2806.4 bus2=B2806.0 r=10.0 x=0.0
new reactor.loadbusgrounding_B2205 phases=1 bus1=B2205.4 bus2=B2205.0 r=10.0 x=0.0
new reactor.loadbusgrounding_B2270 phases=1 bus1=B2270.4 bus2=B2270.0 r=10.0 x=0.0
new reactor.loadbusgrounding_B1144 phases=1 bus1=B1144.4 bus2=B1144.0 r=10.0 x=0.0
new reactor.loadbusgrounding_B3210 phases=1 bus1=B3210.4 bus2=B3210.0 r=10.0 x=0.0
new reactor.loadbusgrounding_B1285 phases=1 bus1=B1285.4 bus2=B1285.0 r=10.0 x=0.0
new reactor.loadbusgrounding_B846 phases=1 bus1=B846.4 bus2=B846.0 r=10.0 x=0.0
new reactor.loadbusgrounding_B2544 phases=1 bus1=B2544.4 bus2=B2544.0 r=10.0 x=0.0
new reactor.loadbusgrounding_B1583 phases=1 bus1=B1583.4 bus2=B1583.0 r=10.0 x=0.0
new reactor.loadbusgrounding_B1310 phases=1 bus1=B1310.4 bus2=B1310.0 r=10.0 x=0.0
new reactor.loadbusgrounding_B1129 phases=1 bus1=B1129.4 bus2=B1129.0 r=10.0 x=0.0
new reactor.loadbusgrounding_B785 phases=1 bus1=B785.4 bus2=B785.0 r=10.0 x=0.0
new reactor.loadbusgrounding_B411 phases=1 bus1=B411.4 bus2=B411.0 r=10.0 x=0.0
new reactor.loadbusgrounding_B3260 phases=1 bus1=B3260.4 bus2=B3260.0 r=10.0 x=0.0
new reactor.loadbusgrounding_B4 phases=1 bus1=B4.4 bus2=B4.0 r=10.0 x=0.0
new reactor.loadbusgrounding_B82 phases=1 bus1=B82.4 bus2=B82.0 r=10.0 x=0.0
new reactor.loadbusgrounding_B1489 phases=1 bus1=B1489.4 bus2=B1489.0 r=10.0 x=0.0
new reactor.loadbusgrounding_B707 phases=1 bus1=B707.4 bus2=B707.0 r=10.0 x=0.0
new reactor.loadbusgrounding_B3296 phases=1 bus1=B3296.4 bus2=B3296.0 r=10.0 x=0.0
new reactor.loadbusgrounding_B2143 phases=1 bus1=B2143.4 bus2=B2143.0 r=10.0 x=0.0
new reactor.loadbusgrounding_B303 phases=1 bus1=B303.4 bus2=B303.0 r=10.0 x=0.0
new reactor.loadbusgrounding_B1682 phases=1 bus1=B1682.4 bus2=B1682.0 r=10.0 x=0.0
new reactor.loadbusgrounding_B70 phases=1 bus1=B70.4 bus2=B70.0 r=10.0 x=0.0
new reactor.loadbusgrounding_B2201 phases=1 bus1=B2201.4 bus2=B2201.0 r=10.0 x=0.0
new reactor.loadbusgrounding_B811 phases=1 bus1=B811.4 bus2=B811.0 r=10.0 x=0.0
new reactor.loadbusgrounding_B3123 phases=1 bus1=B3123.4 bus2=B3123.0 r=10.0 x=0.0
new reactor.loadbusgrounding_B2101 phases=1 bus1=B2101.4 bus2=B2101.0 r=10.0 x=0.0
new reactor.loadbusgrounding_B3306 phases=1 bus1=B3306.4 bus2=B3306.0 r=10.0 x=0.0
new reactor.loadbusgrounding_B1009 phases=1 bus1=B1009.4 bus2=B1009.0 r=10.0 x=0.0
new reactor.loadbusgrounding_B2728 phases=1 bus1=B2728.4 bus2=B2728.0 r=10.0 x=0.0
new reactor.loadbusgrounding_B3076 phases=1 bus1=B3076.4 bus2=B3076.0 r=10.0 x=0.0
new reactor.loadbusgrounding_B1032 phases=1 bus1=B1032.4 bus2=B1032.0 r=10.0 x=0.0
new reactor.loadbusgrounding_B102 phases=1 bus1=B102.4 bus2=B102.0 r=10.0 x=0.0
new reactor.loadbusgrounding_B2983 phases=1 bus1=B2983.4 bus2=B2983.0 r=10.0 x=0.0
new reactor.loadbusgrounding_B944 phases=1 bus1=B944.4 bus2=B944.0 r=10.0 x=0.0
new reactor.loadbusgrounding_B3173 phases=1 bus1=B3173.4 bus2=B3173.0 r=10.0 x=0.0
new reactor.loadbusgrounding_B2291 phases=1 bus1=B2291.4 bus2=B2291.0 r=10.0 x=0.0
new reactor.loadbusgrounding_B2421 phases=1 bus1=B2421.4 bus2=B2421.0 r=10.0 x=0.0
new reactor.loadbusgrounding_B1791 phases=1 bus1=B1791.4 bus2=B1791.0 r=10.0 x=0.0
new reactor.loadbusgrounding_B1 phases=1 bus1=B1.4 bus2=B1.0 r=10.0 x=0.0
new reactor.loadbusgrounding_B2805 phases=1 bus1=B2805.4 bus2=B2805.0 r=10.0 x=0.0
new reactor.loadbusgrounding_B157 phases=1 bus1=B157.4 bus2=B157.0 r=10.0 x=0.0
new reactor.loadbusgrounding_B1859 phases=1 bus1=B1859.4 bus2=B1859.0 r=10.0 x=0.0
new reactor.loadbusgrounding_B2998 phases=1 bus1=B2998.4 bus2=B2998.0 r=10.0 x=0.0
new reactor.loadbusgrounding_B2457 phases=1 bus1=B2457.4 bus2=B2457.0 r=10.0 x=0.0
new reactor.loadbusgrounding_B1594 phases=1 bus1=B1594.4 bus2=B1594.0 r=10.0 x=0.0
new reactor.loadbusgrounding_B2065 phases=1 bus1=B2065.4 bus2=B2065.0 r=10.0 x=0.0
new reactor.loadbusgrounding_B1922 phases=1 bus1=B1922.4 bus2=B1922.0 r=10.0 x=0.0
new reactor.loadbusgrounding_B2053 phases=1 bus1=B2053.4 bus2=B2053.0 r=10.0 x=0.0
new reactor.loadbusgrounding_B1121 phases=1 bus1=B1121.4 bus2=B1121.0 r=10.0 x=0.0
new reactor.loadbusgrounding_B201 phases=1 bus1=B201.4 bus2=B201.0 r=10.0 x=0.0
new reactor.loadbusgrounding_B1850 phases=1 bus1=B1850.4 bus2=B1850.0 r=10.0 x=0.0
new reactor.loadbusgrounding_B438 phases=1 bus1=B438.4 bus2=B438.0 r=10.0 x=0.0
new reactor.loadbusgrounding_B1354 phases=1 bus1=B1354.4 bus2=B1354.0 r=10.0 x=0.0
new reactor.loadbusgrounding_B3405 phases=1 bus1=B3405.4 bus2=B3405.0 r=10.0 x=0.0
new reactor.loadbusgrounding_B2163 phases=1 bus1=B2163.4 bus2=B2163.0 r=10.0 x=0.0
new reactor.loadbusgrounding_B489 phases=1 bus1=B489.4 bus2=B489.0 r=10.0 x=0.0
new reactor.loadbusgrounding_B1839 phases=1 bus1=B1839.4 bus2=B1839.0 r=10.0 x=0.0
new reactor.loadbusgrounding_B731 phases=1 bus1=B731.4 bus2=B731.0 r=10.0 x=0.0
new reactor.loadbusgrounding_B3375 phases=1 bus1=B3375.4 bus2=B3375.0 r=10.0 x=0.0
new reactor.loadbusgrounding_B2840 phases=1 bus1=B2840.4 bus2=B2840.0 r=10.0 x=0.0
new reactor.loadbusgrounding_B567 phases=1 bus1=B567.4 bus2=B567.0 r=10.0 x=0.0
new reactor.loadbusgrounding_B2176 phases=1 bus1=B2176.4 bus2=B2176.0 r=10.0 x=0.0
new reactor.loadbusgrounding_B11 phases=1 bus1=B11.4 bus2=B11.0 r=10.0 x=0.0
new reactor.loadbusgrounding_B2706 phases=1 bus1=B2706.4 bus2=B2706.0 r=10.0 x=0.0
new reactor.loadbusgrounding_B46 phases=1 bus1=B46.4 bus2=B46.0 r=10.0 x=0.0
new reactor.loadbusgrounding_B2309 phases=1 bus1=B2309.4 bus2=B2309.0 r=10.0 x=0.0
new reactor.loadbusgrounding_B2450 phases=1 bus1=B2450.4 bus2=B2450.0 r=10.0 x=0.0
new reactor.loadbusgrounding_B316 phases=1 bus1=B316.4 bus2=B316.0 r=10.0 x=0.0
new reactor.loadbusgrounding_B1813 phases=1 bus1=B1813.4 bus2=B1813.0 r=10.0 x=0.0
new reactor.loadbusgrounding_B2893 phases=1 bus1=B2893.4 bus2=B2893.0 r=10.0 x=0.0
new reactor.loadbusgrounding_B1769 phases=1 bus1=B1769.4 bus2=B1769.0 r=10.0 x=0.0
new reactor.loadbusgrounding_B1355 phases=1 bus1=B1355.4 bus2=B1355.0 r=10.0 x=0.0
new reactor.loadbusgrounding_B2987 phases=1 bus1=B2987.4 bus2=B2987.0 r=10.0 x=0.0
new reactor.loadbusgrounding_B2679 phases=1 bus1=B2679.4 bus2=B2679.0 r=10.0 x=0.0
new reactor.loadbusgrounding_B3225 phases=1 bus1=B3225.4 bus2=B3225.0 r=10.0 x=0.0
new reactor.loadbusgrounding_B795 phases=1 bus1=B795.4 bus2=B795.0 r=10.0 x=0.0
new reactor.loadbusgrounding_B835 phases=1 bus1=B835.4 bus2=B835.0 r=10.0 x=0.0
new reactor.loadbusgrounding_B2336 phases=1 bus1=B2336.4 bus2=B2336.0 r=10.0 x=0.0
new reactor.loadbusgrounding_B1401 phases=1 bus1=B1401.4 bus2=B1401.0 r=10.0 x=0.0
new reactor.loadbusgrounding_B187 phases=1 bus1=B187.4 bus2=B187.0 r=10.0 x=0.0
new reactor.loadbusgrounding_B1652 phases=1 bus1=B1652.4 bus2=B1652.0 r=10.0 x=0.0
new reactor.loadbusgrounding_B575 phases=1 bus1=B575.4 bus2=B575.0 r=10.0 x=0.0
new reactor.loadbusgrounding_B1601 phases=1 bus1=B1601.4 bus2=B1601.0 r=10.0 x=0.0
new reactor.loadbusgrounding_B3000 phases=1 bus1=B3000.4 bus2=B3000.0 r=10.0 x=0.0
new reactor.loadbusgrounding_B1753 phases=1 bus1=B1753.4 bus2=B1753.0 r=10.0 x=0.0
new reactor.loadbusgrounding_B1605 phases=1 bus1=B1605.4 bus2=B1605.0 r=10.0 x=0.0
